reduced_networks/ieee123/78pct/dss/Loads.dss
! Phase-wise constant-PQ injections aggregated by assignment; positive DSS power is consumption.
new Load.agg_4 phases=1 bus1=150r.1 conn=wye kv=2.401777119828843 kw=-1.207725e-06 kvar=1.99923e-06 model=1
new Load.agg_5 phases=1 bus1=150r.2 conn=wye kv=2.401777119828843 kw=1.42887e-06 kvar=1.266995e-06 model=1
new Load.agg_6 phases=1 bus1=150r.3 conn=wye kv=2.401777119828843 kw=-1.790065e-06 kvar=-1.73074e-06 model=1
new Load.agg_7 phases=1 bus1=149.1 conn=wye kv=2.401777119828843 kw=8.6055e-07 kvar=-1.87342e-06 model=1
new Load.agg_8 phases=1 bus1=149.2 conn=wye kv=2.401777119828843 kw=-1.143785e-06 kvar=-1.33069e-06 model=1
new Load.agg_9 phases=1 bus1=149.3 conn=wye kv=2.401777119828843 kw=7.4141e-07 kvar=1.9836e-06 model=1
new Load.agg_10 phases=1 bus1=1.1 conn=wye kv=2.401777119828843 kw=40.00016764722501 kvar=20.000086742575 model=1
new Load.agg_11 phases=1 bus1=1.2 conn=wye kv=2.401777119828843 kw=19.999989522075 kvar=9.99999004425 model=1
new Load.agg_12 phases=1 bus1=1.3 conn=wye kv=2.401777119828843 kw=102.6117410061 kvar=51.30588498468 model=1
new Load.agg_13 phases=1 bus1=7.1 conn=wye kv=2.401777119828843 kw=20.000148079175 kvar=10.00007564727 model=1
new Load.agg_14 phases=1 bus1=7.2 conn=wye kv=2.401777119828843 kw=1.05e-10 kvar=1.05e-10 model=1
new Load.agg_15 phases=1 bus1=7.3 conn=wye kv=2.401777119828843 kw=9.999999999999999e-11 kvar=8.000000000000001e-11 model=1
new Load.agg_16 phases=1 bus1=8.1 conn=wye kv=2.401777119828843 kw=2.5e-11 kvar=-1.6e-10 model=1
new Load.agg_17 phases=1 bus1=8.2 conn=wye kv=2.401777119828843 kw=19.999973927725 kvar=9.999977197739998 model=1
new Load.agg_18 phases=1 bus1=8.3 conn=wye kv=2.401777119828843 kw=-2e-11 kvar=-7.5e-11 model=1
new Load.agg_19 phases=1 bus1=9.1 conn=wye kv=2.401777119828843 kw=40.0003819314 kvar=20.000193182565 model=1
new Load.agg_20 phases=1 bus1=13.1 conn=wye kv=2.401777119828843 kw=4.52185e-06 kvar=-4.413505e-06 model=1
new Load.agg_21 phases=1 bus1=13.2 conn=wye kv=2.401777119828843 kw=1.54287e-06 kvar=2.57061e-06 model=1
new Load.agg_22 phases=1 bus1=13.3 conn=wye kv=2.401777119828843 kw=101.0575946734 kvar=50.52882246985 model=1
new Load.agg_23 phases=1 bus1=9r.1 conn=wye kv=2.401777119828843 kw=60.65784619690999 kvar=30.328923520825 model=1
new Load.agg_24 phases=1 bus1=18.1 conn=wye kv=2.401777119828843 kw=79.64555841236999 kvar=39.82277338705501 model=1
new Load.agg_25 phases=1 bus1=18.2 conn=wye kv=2.401777119828843 kw=42.0576085329 kvar=21.02879767354 model=1
new Load.agg_26 phases=1 bus1=18.3 conn=wye kv=2.401777119828843 kw=39.99684874318 kvar=19.99843935976 model=1
new Load.agg_27 phases=1 bus1=25.1 conn=wye kv=2.401777119828843 kw=78.94456959121 kvar=39.47228173921501 model=1
new Load.agg_28 phases=1 bus1=25.2 conn=wye kv=2.401777119828843 kw=3e-11 kvar=1.2e-10 model=1
new Load.agg_29 phases=1 bus1=25.3 conn=wye kv=2.401777119828843 kw=39.99649761174501 kvar=19.99825677765 model=1
new Load.agg_30 phases=1 bus1=25r.1 conn=wye kv=2.401777119828843 kw=40.08529469705 kvar=20.042648163545 model=1
new Load.agg_31 phases=1 bus1=25r.3 conn=wye kv=2.401777119828843 kw=39.995255355145 kvar=19.99763744225499 model=1
new Load.agg_32 phases=1 bus1=35.1 conn=wye kv=2.401777119828843 kw=281.54500448113 kvar=155.444252884415 model=1
new Load.agg_33 phases=1 bus1=35.2 conn=wye kv=2.401777119828843 kw=275.061102856575 kvar=190.498844991125 model=1
new Load.agg_34 phases=1 bus1=35.3 conn=wye kv=2.401777119828843 kw=200.164971342845 kvar=125.118926590985 model=1
new Load.agg_35 phases=1 bus1=52.1 conn=wye kv=2.401777119828843 kw=99.67468376316501 kvar=49.8373386363 model=1
new Load.agg_36 phases=1 bus1=52.2 conn=wye kv=2.401777119828843 kw=19.99996908643 kvar=9.99997383466 model=1
new Load.agg_37 phases=1 bus1=52.3 conn=wye kv=2.401777119828843 kw=7.500000000000005e-11 kvar=1.4e-10 model=1
new Load.agg_38 phases=1 bus1=57.1 conn=wye kv=2.401777119828843 kw=-5.5e-11 kvar=1e-11 model=1
new Load.agg_39 phases=1 bus1=57.2 conn=wye kv=2.401777119828843 kw=40.500608406765 kvar=20.250290339185 model=1
new Load.agg_40 phases=1 bus1=57.3 conn=wye kv=2.401777119828843 kw=-1.6e-10 kvar=-0 model=1
new Load.agg_41 phases=1 bus1=60.1 conn=wye kv=2.401777119828843 kw=60.00064634204501 kvar=30.00031731788 model=1
new Load.agg_42 phases=1 bus1=60.2 conn=wye kv=2.401777119828843 kw=-2.26586e-06 kvar=-1.384125e-06 model=1
new Load.agg_43 phases=1 bus1=60.3 conn=wye kv=2.401777119828843 kw=39.80554806289499 kvar=19.90277075438 model=1
new Load.agg_44 phases=1 bus1=61.1 conn=wye kv=2.401777119828843 kw=4.809105e-06 kvar=3.709765e-06 model=1
new Load.agg_45 phases=1 bus1=61.2 conn=wye kv=2.401777119828843 kw=8.182e-07 kvar=1.88675e-07 model=1
new Load.agg_46 phases=1 bus1=61.3 conn=wye kv=2.401777119828843 kw=-1.299815e-06 kvar=-2.761e-08 model=1
new Load.agg_47 phases=1 bus1=64.1 conn=wye kv=2.401777119828843 kw=44.28301205771 kvar=45.44102377724501 model=1
new Load.agg_48 phases=1 bus1=64.2 conn=wye kv=2.401777119828843 kw=111.74266328903 kvar=61.05187280541 model=1
new Load.agg_49 phases=1 bus1=64.3 conn=wye kv=2.401777119828843 kw=133.609327233165 kvar=62.93300143369001 model=1
new Load.agg_50 phases=1 bus1=67.1 conn=wye kv=2.401777119828843 kw=384.4923541311099 kvar=197.512141731985 model=1
new Load.agg_51 phases=1 bus1=67.2 conn=wye kv=2.401777119828843 kw=302.92605006019 kvar=189.76694553143 model=1
new Load.agg_52 phases=1 bus1=67.3 conn=wye kv=2.401777119828843 kw=294.795366983205 kvar=163.540230193065 model=1
new Load.agg_53 phases=1 bus1=97.1 conn=wye kv=2.401777119828843 kw=40.00042977147501 kvar=20.00023029803 model=1
new Load.agg_54 phases=1 bus1=97.2 conn=wye kv=2.401777119828843 kw=39.999969898595 kvar=19.99995588162 model=1
new Load.agg_55 phases=1 bus1=97.3 conn=wye kv=2.401777119828843 kw=42.70436357045001 kvar=21.35218444994 model=1
new Load.agg_56 phases=1 bus1=83.1 conn=wye kv=2.401777119828843 kw=1e-11 kvar=-5.5e-11 model=1
new Load.agg_57 phases=1 bus1=83.2 conn=wye kv=2.401777119828843 kw=1e-11 kvar=-8.5e-11 model=1
new Load.agg_58 phases=1 bus1=83.3 conn=wye kv=2.401777119828843 kw=19.999300873885 kvar=9.999673141965001 model=1
new Load.agg_59 phases=1 bus1=197.1 conn=wye kv=2.401777119828843 kw=4.710924999999999e-06 kvar=2.261735e-06 model=1
new Load.agg_60 phases=1 bus1=197.2 conn=wye kv=2.401777119828843 kw=79.999930278655 kvar=39.99990609223499 model=1
new Load.agg_61 phases=1 bus1=197.3 conn=wye kv=2.401777119828843 kw=99.99657900011999 kvar=49.99837552002501 model=1
new Load.agg_62 phases=1 bus1=109.1 conn=wye kv=2.401777119828843 kw=142.91367939484 kvar=71.45686484775499 model=1
new Load.agg_63 phases=1 bus1=135.1 conn=wye kv=2.401777119828843 kw=9.608599999999999e-07 kvar=-1.9981e-07 model=1
new Load.agg_64 phases=1 bus1=135.2 conn=wye kv=2.401777119828843 kw=5.99605e-07 kvar=6.25678e-06 model=1
new Load.agg_65 phases=1 bus1=135.3 conn=wye kv=2.401777119828843 kw=4.31153e-06 kvar=-2.973274999999999e-06 model=1
new Load.agg_66 phases=1 bus1=152.1 conn=wye kv=2.401777119828843 kw=-4.31341e-06 kvar=4.386635e-06 model=1
new Load.agg_67 phases=1 bus1=152.2 conn=wye kv=2.401777119828843 kw=-9.005e-07 kvar=-2.2204e-06 model=1
new Load.agg_68 phases=1 bus1=152.3 conn=wye kv=2.401777119828843 kw=-3.329245e-06 kvar=-2.512705e-06 model=1
new Load.agg_69 phases=1 bus1=160r.1 conn=wye kv=2.401777119828843 kw=-7.69e-09 kvar=-4.274999999999999e-09 model=1
new Load.agg_70 phases=1 bus1=160r.2 conn=wye kv=2.401777119828843 kw=-1.1595e-08 kvar=-9.575e-09 model=1
new Load.agg_71 phases=1 bus1=160r.3 conn=wye kv=2.401777119828843 kw=-3.07e-09 kvar=-4.279999999999999e-09 model=1
new Load.agg_72 phases=1 bus1=160.1 conn=wye kv=2.401777119828843 kw=3.307025e-06 kvar=-2.065025e-06 model=1
new Load.agg_73 phases=1 bus1=160.2 conn=wye kv=2.401777119828843 kw=2.76936e-06 kvar=1.069465e-06 model=1
new Load.agg_74 phases=1 bus1=160.3 conn=wye kv=2.401777119828843 kw=1.88175e-07 kvar=3.385045e-06 model=1
new Load.agg_75 phases=1 bus1=61s.1 conn=wye kv=2.401777119828843 kw=-4.8935e-06 kvar=-3.626665e-06 model=1
new Load.agg_76 phases=1 bus1=61s.2 conn=wye kv=2.401777119828843 kw=7.808849999999999e-07 kvar=2.14085e-07 model=1
new Load.agg_77 phases=1 bus1=61s.3 conn=wye kv=2.401777119828843 kw=1.86821e-06 kvar=9.627e-08 model=1
new Load.agg_78 phases=1 bus1=610.1 conn=wye kv=0.2771281292110204 kw=-0 kvar=-5.000000000000001e-12 model=1
new Load.agg_79 phases=1 bus1=610.2 conn=wye kv=0.2771281292110204 kw=-0 kvar=-5.000000000000001e-12 model=1
new Load.agg_80 phases=1 bus1=610.3 conn=wye kv=0.2771281292110204 kw=-0 kvar=-5.000000000000001e-12 model=1
